Version 4
SHEET 1 2296 1564
WIRE 880 -512 832 -512
WIRE 976 -512 944 -512
WIRE 1104 -512 976 -512
WIRE 1216 -512 1168 -512
WIRE 1392 -512 1248 -512
WIRE 976 -496 976 -512
WIRE 832 -432 832 -512
WIRE 832 -432 784 -432
WIRE 1248 -432 1248 -512
WIRE 1280 -432 1248 -432
WIRE 1392 -416 1392 -512
WIRE 1392 -416 1344 -416
WIRE 1488 -416 1392 -416
WIRE 416 -400 304 -400
WIRE 1216 -400 1216 -512
WIRE 1280 -400 1216 -400
WIRE 832 -352 832 -432
WIRE 864 -352 832 -352
WIRE 1040 -352 944 -352
WIRE 1104 -352 1040 -352
WIRE 1216 -352 1216 -400
WIRE 1216 -352 1184 -352
WIRE 1040 -336 1040 -352
WIRE 1392 -320 1392 -416
WIRE 304 -304 304 -320
WIRE 416 -304 304 -304
WIRE 304 -288 304 -304
WIRE 1392 -224 1392 -240
WIRE 1392 -224 1280 -224
WIRE 416 -208 304 -208
WIRE 976 -208 976 -416
WIRE 1040 -208 1040 -272
WIRE 1040 -208 976 -208
WIRE 1168 -208 1040 -208
WIRE 1216 -208 1168 -208
WIRE 1312 -192 1280 -192
WIRE 1392 -192 1392 -224
WIRE 384 -112 304 -112
WIRE 1168 -112 1168 -208
WIRE 1312 -112 1312 -192
WIRE 1312 -112 1168 -112
WIRE 304 -96 304 -112
WIRE 304 16 304 -16
WIRE 832 32 784 32
WIRE 880 32 832 32
WIRE 1040 32 944 32
WIRE 1104 32 1040 32
WIRE 1216 32 1168 32
WIRE 1424 32 1216 32
WIRE 1040 48 1040 32
WIRE 304 160 304 96
WIRE 1040 160 1040 128
WIRE 1040 160 976 160
WIRE 976 176 976 160
WIRE 1040 192 1040 160
WIRE 832 272 832 32
WIRE 864 272 832 272
WIRE 1040 272 1040 256
WIRE 1040 272 944 272
WIRE 1104 272 1040 272
WIRE 1216 272 1216 32
WIRE 1216 272 1184 272
WIRE 1392 432 1360 432
WIRE 1488 448 1456 448
WIRE 1520 448 1488 448
WIRE 816 464 768 464
WIRE 832 464 816 464
WIRE 976 464 896 464
WIRE 1104 464 976 464
WIRE 1392 464 1104 464
WIRE 1104 496 1104 464
WIRE 816 560 816 464
WIRE 832 560 816 560
WIRE 976 560 976 464
WIRE 976 560 912 560
WIRE 976 592 976 560
WIRE 1104 624 1104 576
WIRE 1168 624 1104 624
WIRE 1248 624 1232 624
WIRE 1360 624 1360 432
WIRE 1360 624 1248 624
WIRE 1376 624 1360 624
WIRE 1488 624 1488 448
WIRE 1488 624 1456 624
WIRE 1488 640 1488 624
WIRE 976 688 976 672
WIRE 1488 736 1488 720
WIRE 1488 736 1216 736
WIRE 1104 752 1104 624
WIRE 1152 752 1104 752
WIRE 1488 752 1488 736
WIRE 1248 768 1248 624
WIRE 1248 768 1216 768
WIRE 816 848 816 560
WIRE 1488 848 1488 832
WIRE 1488 848 816 848
WIRE 1424 1120 1392 1120
WIRE 1520 1136 1488 1136
WIRE 1552 1136 1520 1136
WIRE 848 1152 800 1152
WIRE 864 1152 848 1152
WIRE 1008 1152 928 1152
WIRE 1136 1152 1008 1152
WIRE 1424 1152 1136 1152
WIRE 1136 1184 1136 1152
WIRE 848 1248 848 1152
WIRE 864 1248 848 1248
WIRE 1008 1248 1008 1152
WIRE 1008 1248 944 1248
WIRE 1008 1280 1008 1248
WIRE 1136 1312 1136 1264
WIRE 1200 1312 1136 1312
WIRE 1280 1312 1264 1312
WIRE 1392 1312 1392 1120
WIRE 1392 1312 1280 1312
WIRE 1408 1312 1392 1312
WIRE 1520 1312 1520 1136
WIRE 1520 1312 1488 1312
WIRE 1520 1328 1520 1312
WIRE 1008 1376 1008 1360
WIRE 1520 1424 1520 1408
WIRE 1520 1424 1248 1424
WIRE 1136 1440 1136 1312
WIRE 1184 1440 1136 1440
WIRE 1520 1440 1520 1424
WIRE 1280 1456 1280 1312
WIRE 1280 1456 1248 1456
WIRE 848 1536 848 1248
WIRE 1520 1536 1520 1520
WIRE 1520 1536 848 1536
FLAG 416 -400 +10
FLAG 416 -208 -10
FLAG 416 -304 0
FLAG 1488 -416 V_TWIN_T
IOPIN 1488 -416 Out
FLAG 384 -112 V_INPUT
IOPIN 384 -112 In
FLAG 1312 -448 +10
FLAG 1312 -384 -10
FLAG 784 -432 V_INPUT
IOPIN 784 -432 In
FLAG 1248 -176 +10
FLAG 1248 -240 -10
FLAG 1392 -112 0
FLAG 304 160 0
FLAG 784 32 V_INPUT
IOPIN 784 32 In
FLAG 976 176 0
FLAG 1424 32 V_PASSIVE_T
IOPIN 1424 32 Out
FLAG 768 464 V_INPUT
IOPIN 768 464 In
FLAG 976 688 0
FLAG 1424 416 +10
FLAG 1424 480 -10
FLAG 1184 784 +10
FLAG 1184 720 -10
FLAG 1520 448 V_FLIEGE
IOPIN 1520 448 Out
FLAG 800 1152 V_INPUT
IOPIN 800 1152 In
FLAG 1008 1376 0
FLAG 1456 1104 +10
FLAG 1456 1168 -10
FLAG 1216 1472 +10
FLAG 1216 1408 -10
FLAG 1552 1136 V_FLIEGE_CENTER
IOPIN 1552 1136 Out
DATAFLAG 1552 -416 ""
SYMBOL voltage 304 -416 R0
WINDOW 0 41 45 Left 2
WINDOW 3 42 70 Left 2
WINDOW 123 0 0 Left 0
WINDOW 39 0 0 Left 0
SYMATTR InstName VDD
SYMATTR Value 10
SYMBOL voltage 304 -304 R0
WINDOW 0 46 45 Left 2
WINDOW 3 45 65 Left 2
WINDOW 123 0 0 Left 0
WINDOW 39 0 0 Left 0
SYMATTR InstName VSS
SYMATTR Value 10
SYMBOL voltage 304 -112 R0
WINDOW 0 41 35 Left 2
WINDOW 3 37 62 Left 2
WINDOW 123 37 83 Left 2
WINDOW 39 0 0 Left 0
SYMATTR InstName V_TEST
SYMATTR Value SINE(1 10m 51)
SYMATTR Value2 AC 1 0
SYMBOL cap 944 -528 R90
WINDOW 0 0 32 VBottom 2
WINDOW 3 32 32 VTop 2
SYMATTR InstName C5
SYMATTR Value 1µ
SYMBOL OpAmps\\UniversalOpAmp1 1312 -416 R0
SYMATTR InstName U2
SYMATTR Value2 Avol=205k GBW=4meg Vos=0
SYMBOL cap 1168 -528 R90
WINDOW 0 0 32 VBottom 2
WINDOW 3 32 32 VTop 2
SYMATTR InstName C1
SYMATTR Value 1µ
SYMBOL res 960 -512 R0
SYMATTR InstName R1
SYMATTR Value 1.65k
SYMBOL res 960 -368 R90
WINDOW 0 0 56 VBottom 2
WINDOW 3 32 56 VTop 2
SYMATTR InstName R2
SYMATTR Value 3.3k
SYMBOL res 1200 -368 R90
WINDOW 0 0 56 VBottom 2
WINDOW 3 32 56 VTop 2
SYMATTR InstName R3
SYMATTR Value 3.3k
SYMBOL cap 1024 -336 R0
SYMATTR InstName C2
SYMATTR Value 2µ
SYMBOL OpAmps\\UniversalOpAmp1 1248 -208 R180
SYMATTR InstName U1
SYMATTR Value2 Avol=205k GBW=4meg Vos=0
SYMBOL res 1376 -208 R0
SYMATTR InstName R4
SYMATTR Value 100
SYMBOL res 1376 -336 R0
SYMATTR InstName R5
SYMATTR Value 100k
SYMBOL voltage 304 0 R0
WINDOW 0 41 35 Left 2
WINDOW 3 37 62 Left 2
WINDOW 123 37 83 Left 2
WINDOW 39 0 0 Left 0
SYMATTR InstName V_TEST1
SYMATTR Value SINE(0 10m 20)
SYMATTR Value2 AC 1 0
SYMBOL cap 944 16 R90
WINDOW 0 0 32 VBottom 2
WINDOW 3 32 32 VTop 2
SYMATTR InstName C3
SYMATTR Value {Cfreq}
SYMBOL res 1024 32 R0
SYMATTR InstName R6
SYMATTR Value {Rfreq/2}
SYMBOL res 960 256 R90
WINDOW 0 85 53 VBottom 2
WINDOW 3 32 56 VTop 2
SYMATTR InstName R7
SYMATTR Value {Rfreq}
SYMBOL res 1200 256 R90
WINDOW 0 85 52 VBottom 2
WINDOW 3 32 56 VTop 2
SYMATTR InstName R8
SYMATTR Value {Rfreq}
SYMBOL cap 1024 192 R0
WINDOW 0 42 12 Left 2
WINDOW 3 41 32 Left 2
SYMATTR InstName C6
SYMATTR Value {2*Cfreq}
SYMBOL cap 896 448 R90
WINDOW 0 0 32 VBottom 2
WINDOW 3 32 32 VTop 2
SYMATTR InstName C7
SYMATTR Value {Cfreq}
SYMBOL res 928 544 R90
WINDOW 0 0 56 VBottom 2
WINDOW 3 32 56 VTop 2
SYMATTR InstName R9
SYMATTR Value {RQ}
SYMBOL res 960 576 R0
SYMATTR InstName R10
SYMATTR Value {RQ}
SYMBOL res 1088 480 R0
SYMATTR InstName R11
SYMATTR Value {Rfreq}
SYMBOL OpAmps\\UniversalOpAmp1 1424 448 R0
SYMATTR InstName U3
SYMATTR Value2 Avol=205k GBW=4meg Vos=0
SYMBOL res 1472 624 R0
SYMATTR InstName R12
SYMATTR Value {1+RPOT}
SYMBOL cap 1232 608 R90
WINDOW 0 0 32 VBottom 2
WINDOW 3 32 32 VTop 2
SYMATTR InstName C8
SYMATTR Value {Cfreq}
SYMBOL OpAmps\\UniversalOpAmp1 1184 752 R180
SYMATTR InstName U4
SYMATTR Value2 Avol=205k GBW=4meg Vos=0
SYMBOL res 1472 608 R90
WINDOW 0 0 56 VBottom 2
WINDOW 3 32 56 VTop 2
SYMATTR InstName R13
SYMATTR Value {Rfreq}
SYMBOL res 1472 736 R0
SYMATTR InstName R14
SYMATTR Value {1+20k-RPOT}
SYMBOL cap 928 1136 R90
WINDOW 0 0 32 VBottom 2
WINDOW 3 32 32 VTop 2
SYMATTR InstName C9
SYMATTR Value {Cfreq}
SYMBOL res 960 1232 R90
WINDOW 0 0 56 VBottom 2
WINDOW 3 32 56 VTop 2
SYMATTR InstName R17
SYMATTR Value {RQ}
SYMBOL res 992 1264 R0
SYMATTR InstName R18
SYMATTR Value {RQ}
SYMBOL res 1120 1168 R0
SYMATTR InstName R19
SYMATTR Value {Rfreq}
SYMBOL OpAmps\\UniversalOpAmp1 1456 1136 R0
SYMATTR InstName U5
SYMATTR Value2 Avol=205k GBW=4meg Vos=0
SYMBOL cap 1264 1296 R90
WINDOW 0 0 32 VBottom 2
WINDOW 3 32 32 VTop 2
SYMATTR InstName C10
SYMATTR Value {Cfreq}
SYMBOL OpAmps\\UniversalOpAmp1 1216 1440 R180
SYMATTR InstName U6
SYMATTR Value2 Avol=205k GBW=4meg Vos=0
SYMBOL res 1504 1296 R90
WINDOW 0 0 56 VBottom 2
WINDOW 3 32 56 VTop 2
SYMATTR InstName R20
SYMATTR Value {Rfreq}
SYMBOL res 1504 1424 R0
SYMATTR InstName R21
SYMATTR Value 10k
SYMBOL res 1504 1312 R0
SYMATTR InstName R22
SYMATTR Value 10k
SYMBOL cap 1168 16 R90
WINDOW 0 0 32 VBottom 2
WINDOW 3 32 32 VTop 2
SYMATTR InstName C4
SYMATTR Value {Cfreq}
TEXT 1304 920 Left 2 ;.tran 0 2000m 0
TEXT 1304 944 Left 2 !.ac dec 400 10 1K
TEXT 800 880 Left 2 !.param Rfreq=318k
TEXT 800 920 Left 2 !.param Cfreq=10n
TEXT 800 960 Left 2 !.step param RPOT 6k 14k 2k
TEXT 800 1000 Left 2 !.param RQ=1MEG
